
     RDKit          3D

 51 54  0  0  0  0  0  0  0  0999 V2000
   12.5879   -0.6558   24.8402 C   0  0  0  0  0  0  0  0  0  0  0  0
   12.2943   -1.6519   23.8887 O   0  0  0  0  0  0  0  0  0  0  0  0
   10.9962   -1.7906   23.4978 C   0  0  0  0  0  0  0  0  0  0  0  0
   10.7833   -2.7425   22.5011 C   0  0  0  0  0  0  0  0  0  0  0  0
    9.5079   -3.0211   22.0497 C   0  0  0  0  0  0  0  0  0  0  0  0
    8.4099   -2.3304   22.5604 C   0  0  0  0  0  0  0  0  0  0  0  0
    7.1011   -2.6688   22.0884 N   0  0  0  0  0  0  0  0  0  0  0  0
    6.5558   -3.9822   22.4346 C   0  0  0  0  0  0  0  0  0  0  0  0
    5.9909   -3.9978   23.8397 C   0  0  0  0  0  0  0  0  0  0  0  0
    6.8327   -4.1788   24.9365 C   0  0  0  0  0  0  0  0  0  0  0  0
    6.3238   -4.1128   26.2281 C   0  0  0  0  0  0  0  0  0  0  0  0
    4.9695   -3.8802   26.4406 C   0  0  0  0  0  0  0  0  0  0  0  0
    4.1408   -3.6950   25.3416 C   0  0  0  0  0  0  0  0  0  0  0  0
    2.4417   -3.4062   25.5921 Cl  0  0  0  0  0  0  0  0  0  0  0  0
    4.6374   -3.7379   24.0453 C   0  0  0  0  0  0  0  0  0  0  0  0
    3.9801   -3.5488   23.2008 H   0  0  0  0  0  0  0  0  0  0  0  0
    4.5599   -3.8386   27.4453 H   0  0  0  0  0  0  0  0  0  0  0  0
    6.9906   -4.2291   27.0765 H   0  0  0  0  0  0  0  0  0  0  0  0
    7.8978   -4.3464   24.7817 H   0  0  0  0  0  0  0  0  0  0  0  0
    5.7822   -4.2173   21.6974 H   0  0  0  0  0  0  0  0  0  0  0  0
    7.3634   -4.7167   22.3469 H   0  0  0  0  0  0  0  0  0  0  0  0
    6.2637   -1.7902   21.4357 C   0  0  0  0  0  0  0  0  0  0  0  0
    5.0846   -2.0433   21.2518 O   0  0  0  0  0  0  0  0  0  0  0  0
    6.9145   -0.5168   20.8877 C   0  0  0  0  0  0  0  0  0  0  0  0
    6.1213    0.0747   19.7650 C   0  0  0  0  0  0  0  0  0  0  0  0
    6.4462   -0.2127   18.4665 C   0  0  0  0  0  0  0  0  0  0  0  0
    5.7817    0.2440   17.3765 N   0  0  0  0  0  0  0  0  0  0  0  0
    4.7472    1.0168   17.5923 C   0  0  0  0  0  0  0  0  0  0  0  0
    4.2846    1.3840   18.8825 C   0  0  0  0  0  0  0  0  0  0  0  0
    3.1695    2.2400   19.0599 C   0  0  0  0  0  0  0  0  0  0  0  0
    2.7602    2.5932   20.3150 C   0  0  0  0  0  0  0  0  0  0  0  0
    3.4421    2.0965   21.4486 C   0  0  0  0  0  0  0  0  0  0  0  0
    4.5210    1.2583   21.3039 C   0  0  0  0  0  0  0  0  0  0  0  0
    4.9813    0.8934   20.0097 C   0  0  0  0  0  0  0  0  0  0  0  0
    5.0244    0.8704   22.1847 H   0  0  0  0  0  0  0  0  0  0  0  0
    3.1160    2.3948   22.4410 H   0  0  0  0  0  0  0  0  0  0  0  0
    1.9169    3.2660   20.4474 H   0  0  0  0  0  0  0  0  0  0  0  0
    2.6702    2.6256   18.1743 H   0  0  0  0  0  0  0  0  0  0  0  0
    4.2181    1.3927   16.7166 H   0  0  0  0  0  0  0  0  0  0  0  0
    7.3029   -0.8518   18.2491 H   0  0  0  0  0  0  0  0  0  0  0  0
    7.0381    0.2037   21.7071 H   0  0  0  0  0  0  0  0  0  0  0  0
    7.9288   -0.7753   20.5604 H   0  0  0  0  0  0  0  0  0  0  0  0
    8.6225   -1.3588   23.5362 C   0  0  0  0  0  0  0  0  0  0  0  0
    9.9087   -1.0872   24.0133 C   0  0  0  0  0  0  0  0  0  0  0  0
   10.0410   -0.3332   24.7841 H   0  0  0  0  0  0  0  0  0  0  0  0
    7.7740   -0.8182   23.9560 H   0  0  0  0  0  0  0  0  0  0  0  0
    9.3417   -3.7749   21.2850 H   0  0  0  0  0  0  0  0  0  0  0  0
   11.6521   -3.2518   22.1067 H   0  0  0  0  0  0  0  0  0  0  0  0
   12.2877    0.3350   24.4744 H   0  0  0  0  0  0  0  0  0  0  0  0
   13.6705   -0.6821   24.9834 H   0  0  0  0  0  0  0  0  0  0  0  0
   12.0863   -0.8594   25.7962 H   0  0  0  0  0  0  0  0  0  0  0  0
  1  2  1  0
  2  3  1  0
  3  4  2  0
  4  5  1  0
  5  6  2  0
  6  7  1  0
  7  8  1  0
  8  9  1  0
  9 10  2  0
 10 11  1  0
 11 12  2  0
 12 13  1  0
 13 14  1  0
 13 15  2  0
 15 16  1  0
 12 17  1  0
 11 18  1  0
 10 19  1  0
  8 20  1  0
  8 21  1  0
  7 22  1  0
 22 23  2  0
 22 24  1  0
 24 25  1  0
 25 26  2  0
 26 27  1  0
 27 28  2  0
 28 29  1  0
 29 30  2  0
 30 31  1  0
 31 32  2  0
 32 33  1  0
 33 34  2  0
 33 35  1  0
 32 36  1  0
 31 37  1  0
 30 38  1  0
 28 39  1  0
 26 40  1  0
 24 41  1  0
 24 42  1  0
  6 43  1  0
 43 44  2  0
 44 45  1  0
 43 46  1  0
  5 47  1  0
  4 48  1  0
  1 49  1  0
  1 50  1  0
  1 51  1  0
 44  3  1  0
 15  9  1  0
 34 25  1  0
 34 29  1  0
M  END
>  <cnnaffinities>  (1) 
[6.01818, 6.05588, 6.03462]

>  <score>  (1) 
6.01818

>  <index>  (1) 
0

>  <Smiles>  (1) 
C(Oc1c(c(c(N(C(c2c(c(c(c(Cl)c2[H])[H])[H])[H])([H])[H])C(=O)C(c2c(nc(c3c(c(c(c(c23)[H])[H])[H])[H])[H])[H])([H])[H])c(c1[H])[H])[H])[H])([H])([H])[H]

>  <h>  (1) 
<NA>

>  <Training>  (1) 
True

>  <Success>  (1) 
True

>  <enamine_searched>  (1) 
False

>  <enamine_id>  (1) 
nan

$$$$

     RDKit          3D

 56 60  0  0  0  0  0  0  0  0999 V2000
    5.6935    4.5445   21.0425 C   0  0  0  0  0  0  0  0  0  0  0  0
    6.7800    4.0773   21.8799 N   0  0  0  0  0  0  0  0  0  0  0  0
    6.7638    4.2676   23.2171 C   0  0  0  0  0  0  0  0  0  0  0  0
    5.8833    4.8701   23.8161 O   0  0  0  0  0  0  0  0  0  0  0  0
    7.9549    3.6870   23.9781 C   0  0  0  0  0  0  0  0  0  0  0  0
    8.5212    2.4762   23.4091 N   0  0  0  0  0  0  0  0  0  0  0  0
    7.7782    1.2334   23.5753 C   0  0  0  0  0  0  0  0  0  0  0  0
    8.0720    0.2718   22.3946 C   0  0  2  0  0  0  0  0  0  0  0  0
    7.4270    0.8685   21.1329 C   0  0  0  0  0  0  0  0  0  0  0  0
    7.8936    1.7399   20.4219 O   0  0  0  0  0  0  0  0  0  0  0  0
    6.1838    0.3038   20.9643 N   0  0  0  0  0  0  0  0  0  0  0  0
    5.3499    0.7346   19.9118 C   0  0  0  0  0  0  0  0  0  0  0  0
    5.8037    0.6548   18.6163 C   0  0  0  0  0  0  0  0  0  0  0  0
    5.1341    1.1446   17.5555 N   0  0  0  0  0  0  0  0  0  0  0  0
    3.9886    1.7433   17.7903 C   0  0  0  0  0  0  0  0  0  0  0  0
    3.3757    1.8399   19.0685 C   0  0  0  0  0  0  0  0  0  0  0  0
    2.1140    2.4580   19.2602 C   0  0  0  0  0  0  0  0  0  0  0  0
    1.5711    2.5715   20.5143 C   0  0  0  0  0  0  0  0  0  0  0  0
    2.2810    2.0960   21.6336 C   0  0  0  0  0  0  0  0  0  0  0  0
    3.5136    1.5056   21.4759 C   0  0  0  0  0  0  0  0  0  0  0  0
    4.0782    1.3270   20.1838 C   0  0  0  0  0  0  0  0  0  0  0  0
    4.0767    1.2044   22.3523 H   0  0  0  0  0  0  0  0  0  0  0  0
    1.8649    2.2100   22.6299 H   0  0  0  0  0  0  0  0  0  0  0  0
    0.6019    3.0420   20.6515 H   0  0  0  0  0  0  0  0  0  0  0  0
    1.6013    2.8533   18.3893 H   0  0  0  0  0  0  0  0  0  0  0  0
    3.4942    2.1969   16.9369 H   0  0  0  0  0  0  0  0  0  0  0  0
    6.7643    0.1871   18.4042 H   0  0  0  0  0  0  0  0  0  0  0  0
    5.8814   -0.7384   21.9365 C   0  0  0  0  0  0  0  0  0  0  0  0
    7.2815   -1.0593   22.4672 C   0  0  2  0  0  0  0  0  0  0  0  0
    7.3370   -1.7295   23.8030 N   0  0  0  0  0  4  0  0  0  0  0  0
    6.9807   -2.6992   23.7465 H   0  0  0  0  0  0  0  0  0  0  0  0
    6.7844   -1.1885   24.4917 H   0  0  0  0  0  0  0  0  0  0  0  0
    8.3281   -1.7471   24.1041 H   0  0  0  0  0  0  0  0  0  0  0  0
    7.7332   -1.7377   21.7535 H   0  0  0  0  0  0  0  0  0  0  0  0
    5.2343   -0.3812   22.7477 H   0  0  0  0  0  0  0  0  0  0  0  0
    5.3898   -1.5811   21.4411 H   0  0  0  0  0  0  0  0  0  0  0  0
    9.5679    0.1126   22.2652 C   0  0  0  0  0  0  0  0  0  0  0  0
   10.1345   -1.0295   21.6853 C   0  0  0  0  0  0  0  0  0  0  0  0
   11.5045   -1.1375   21.5607 C   0  0  0  0  0  0  0  0  0  0  0  0
   12.1378   -2.5340   20.7487 Cl  0  0  0  0  0  0  0  0  0  0  0  0
   12.3607   -0.1288   21.9978 C   0  0  0  0  0  0  0  0  0  0  0  0
   11.8079    1.0157   22.5354 C   0  0  0  0  0  0  0  0  0  0  0  0
   10.4240    1.1484   22.6630 C   0  0  0  0  0  0  0  0  0  0  0  0
    9.8846    2.4371   23.2133 C   0  0  0  0  0  0  0  0  0  0  0  0
   10.6132    3.3912   23.4475 O   0  0  0  0  0  0  0  0  0  0  0  0
   12.4422    1.8372   22.8485 H   0  0  0  0  0  0  0  0  0  0  0  0
   13.4327   -0.2222   21.8717 H   0  0  0  0  0  0  0  0  0  0  0  0
    9.5363   -1.8391   21.2873 H   0  0  0  0  0  0  0  0  0  0  0  0
    6.7147    1.4798   23.6026 H   0  0  0  0  0  0  0  0  0  0  0  0
    8.0434    0.7598   24.5325 H   0  0  0  0  0  0  0  0  0  0  0  0
    7.6169    3.5516   25.0094 H   0  0  0  0  0  0  0  0  0  0  0  0
    8.7691    4.4176   23.9885 H   0  0  0  0  0  0  0  0  0  0  0  0
    7.4995    3.4949   21.4614 H   0  0  0  0  0  0  0  0  0  0  0  0
    5.2740    3.7083   20.4629 H   0  0  0  0  0  0  0  0  0  0  0  0
    6.0279    5.3384   20.3625 H   0  0  0  0  0  0  0  0  0  0  0  0
    4.9158    4.9489   21.6946 H   0  0  0  0  0  0  0  0  0  0  0  0
  1  2  1  0
  2  3  1  0
  3  4  2  0
  3  5  1  0
  5  6  1  0
  6  7  1  0
  8  7  1  1
  8  9  1  0
  9 10  2  0
  9 11  1  0
 11 12  1  0
 12 13  2  0
 13 14  1  0
 14 15  2  0
 15 16  1  0
 16 17  2  0
 17 18  1  0
 18 19  2  0
 19 20  1  0
 20 21  2  0
 20 22  1  0
 19 23  1  0
 18 24  1  0
 17 25  1  0
 15 26  1  0
 13 27  1  0
 11 28  1  0
 28 29  1  0
 29 30  1  0
 30 31  1  0
 30 32  1  0
 30 33  1  0
 29 34  1  6
 28 35  1  0
 28 36  1  0
  8 37  1  0
 37 38  2  0
 38 39  1  0
 39 40  1  0
 39 41  2  0
 41 42  1  0
 42 43  2  0
 43 44  1  0
 44 45  2  0
 42 46  1  0
 41 47  1  0
 38 48  1  0
  7 49  1  0
  7 50  1  0
  5 51  1  0
  5 52  1  0
  2 53  1  0
  1 54  1  0
  1 55  1  0
  1 56  1  0
 44  6  1  0
 29  8  1  0
 43 37  1  0
 21 12  1  0
 21 16  1  0
M  CHG  1  30   1
M  END
>  <cnnaffinities>  (2) 
[5.63898, 5.65391]

>  <score>  (2) 
5.63898

>  <index>  (2) 
1

>  <Smiles>  (2) 
C(N(C(=O)C(N1C([C@@]2(C(=O)N(c3c(nc(c4c(c(c(c(c34)[H])[H])[H])[H])[H])[H])C([C@@]2([N+]([H])([H])[H])[H])([H])[H])c2c(c(Cl)c(c(c2C1=O)[H])[H])[H])([H])[H])([H])[H])[H])([H])([H])[H]

>  <h>  (2) 
<NA>

>  <Training>  (2) 
True

>  <Success>  (2) 
True

>  <enamine_searched>  (2) 
False

>  <enamine_id>  (2) 
nan

$$$$
