
     RDKit          3D

 51 54  0  0  0  0  0  0  0  0999 V2000
   13.1190   -2.1003   24.1004 C   0  0  0  0  0  0  0  0  0  0  0  0
   12.1329   -1.1064   23.8919 O   0  0  0  0  0  0  0  0  0  0  0  0
   10.9268   -1.5438   23.4067 C   0  0  0  0  0  0  0  0  0  0  0  0
   10.8206   -2.3761   22.2956 C   0  0  0  0  0  0  0  0  0  0  0  0
    9.5652   -2.7442   21.8298 C   0  0  0  0  0  0  0  0  0  0  0  0
    8.4134   -2.2686   22.4442 C   0  0  0  0  0  0  0  0  0  0  0  0
    7.1318   -2.6688   21.9646 N   0  0  0  0  0  0  0  0  0  0  0  0
    6.6446   -3.9789   22.3884 C   0  0  0  0  0  0  0  0  0  0  0  0
    6.0656   -3.9830   23.7913 C   0  0  0  0  0  0  0  0  0  0  0  0
    4.6938   -3.8470   23.9989 C   0  0  0  0  0  0  0  0  0  0  0  0
    4.1706   -3.8472   25.2891 C   0  0  0  0  0  0  0  0  0  0  0  0
    5.0079   -3.9701   26.3908 C   0  0  0  0  0  0  0  0  0  0  0  0
    6.3763   -4.0860   26.1792 C   0  0  0  0  0  0  0  0  0  0  0  0
    7.4370   -4.2302   27.5513 Cl  0  0  0  0  0  0  0  0  0  0  0  0
    6.9118   -4.0938   24.8977 C   0  0  0  0  0  0  0  0  0  0  0  0
    7.9905   -4.1576   24.7687 H   0  0  0  0  0  0  0  0  0  0  0  0
    4.6153   -3.9648   27.4037 H   0  0  0  0  0  0  0  0  0  0  0  0
    3.0977   -3.7585   25.4389 H   0  0  0  0  0  0  0  0  0  0  0  0
    4.0301   -3.7386   23.1441 H   0  0  0  0  0  0  0  0  0  0  0  0
    5.8959   -4.2912   21.6571 H   0  0  0  0  0  0  0  0  0  0  0  0
    7.4939   -4.6729   22.3504 H   0  0  0  0  0  0  0  0  0  0  0  0
    6.3075   -1.8595   21.2115 C   0  0  0  0  0  0  0  0  0  0  0  0
    5.1651   -2.1940   20.9436 O   0  0  0  0  0  0  0  0  0  0  0  0
    6.9136   -0.5399   20.6993 C   0  0  0  0  0  0  0  0  0  0  0  0
    6.1109    0.0674   19.5823 C   0  0  0  0  0  0  0  0  0  0  0  0
    6.4236   -0.2086   18.2778 C   0  0  0  0  0  0  0  0  0  0  0  0
    5.7617    0.2630   17.1869 N   0  0  0  0  0  0  0  0  0  0  0  0
    4.7458    1.0613   17.4152 C   0  0  0  0  0  0  0  0  0  0  0  0
    4.2953    1.4261   18.7125 C   0  0  0  0  0  0  0  0  0  0  0  0
    3.1890    2.2919   18.9062 C   0  0  0  0  0  0  0  0  0  0  0  0
    2.7626    2.6014   20.1691 C   0  0  0  0  0  0  0  0  0  0  0  0
    3.4198    2.0521   21.2926 C   0  0  0  0  0  0  0  0  0  0  0  0
    4.4957    1.2133   21.1316 C   0  0  0  0  0  0  0  0  0  0  0  0
    4.9764    0.8952   19.8332 C   0  0  0  0  0  0  0  0  0  0  0  0
    4.9798    0.7826   22.0027 H   0  0  0  0  0  0  0  0  0  0  0  0
    3.0667    2.2971   22.2900 H   0  0  0  0  0  0  0  0  0  0  0  0
    1.9180    3.2688   20.3151 H   0  0  0  0  0  0  0  0  0  0  0  0
    2.6943    2.7056   18.0309 H   0  0  0  0  0  0  0  0  0  0  0  0
    4.2146    1.4526   16.5460 H   0  0  0  0  0  0  0  0  0  0  0  0
    7.2696   -0.8569   18.0480 H   0  0  0  0  0  0  0  0  0  0  0  0
    7.9432   -0.7368   20.3705 H   0  0  0  0  0  0  0  0  0  0  0  0
    7.0036    0.1535   21.5476 H   0  0  0  0  0  0  0  0  0  0  0  0
    8.5240   -1.4212   23.5424 C   0  0  0  0  0  0  0  0  0  0  0  0
    9.7741   -1.0636   24.0255 C   0  0  0  0  0  0  0  0  0  0  0  0
    9.8812   -0.4200   24.8928 H   0  0  0  0  0  0  0  0  0  0  0  0
    7.6206   -1.0727   24.0404 H   0  0  0  0  0  0  0  0  0  0  0  0
    9.4754   -3.4114   20.9792 H   0  0  0  0  0  0  0  0  0  0  0  0
   11.7110   -2.7205   21.7780 H   0  0  0  0  0  0  0  0  0  0  0  0
   14.0647   -1.5840   24.2807 H   0  0  0  0  0  0  0  0  0  0  0  0
   13.2375   -2.7626   23.2342 H   0  0  0  0  0  0  0  0  0  0  0  0
   12.8674   -2.7158   24.9734 H   0  0  0  0  0  0  0  0  0  0  0  0
  1  2  1  0
  2  3  1  0
  3  4  2  0
  4  5  1  0
  5  6  2  0
  6  7  1  0
  7  8  1  0
  8  9  1  0
  9 10  2  0
 10 11  1  0
 11 12  2  0
 12 13  1  0
 13 14  1  0
 13 15  2  0
 15 16  1  0
 12 17  1  0
 11 18  1  0
 10 19  1  0
  8 20  1  0
  8 21  1  0
  7 22  1  0
 22 23  2  0
 22 24  1  0
 24 25  1  0
 25 26  2  0
 26 27  1  0
 27 28  2  0
 28 29  1  0
 29 30  2  0
 30 31  1  0
 31 32  2  0
 32 33  1  0
 33 34  2  0
 33 35  1  0
 32 36  1  0
 31 37  1  0
 30 38  1  0
 28 39  1  0
 26 40  1  0
 24 41  1  0
 24 42  1  0
  6 43  1  0
 43 44  2  0
 44 45  1  0
 43 46  1  0
  5 47  1  0
  4 48  1  0
  1 49  1  0
  1 50  1  0
  1 51  1  0
 44  3  1  0
 15  9  1  0
 34 25  1  0
 34 29  1  0
M  END
>  <cnnaffinities>  (1) 
[5.83211, 5.90072, 6.05499]

>  <score>  (1) 
5.83211

>  <index>  (1) 
0

>  <Smiles>  (1) 
C(Oc1c(c(c(N(C(c2c(c(c(c(Cl)c2[H])[H])[H])[H])([H])[H])C(=O)C(c2c(nc(c3c(c(c(c(c23)[H])[H])[H])[H])[H])[H])([H])[H])c(c1[H])[H])[H])[H])([H])([H])[H]

>  <h>  (1) 
<NA>

>  <Training>  (1) 
True

>  <Success>  (1) 
True

>  <enamine_searched>  (1) 
False

>  <enamine_id>  (1) 
nan

$$$$

     RDKit          3D

 56 60  0  0  0  0  0  0  0  0999 V2000
    7.6941   -8.3357   23.2158 C   0  0  0  0  0  0  0  0  0  0  0  0
    6.8190   -7.2043   23.0097 N   0  0  0  0  0  0  0  0  0  0  0  0
    6.8619   -6.4580   21.8788 C   0  0  0  0  0  0  0  0  0  0  0  0
    7.5139   -6.7411   20.8884 O   0  0  0  0  0  0  0  0  0  0  0  0
    6.0175   -5.1864   21.9505 C   0  0  0  0  0  0  0  0  0  0  0  0
    6.5791   -4.2025   22.8527 N   0  0  0  0  0  0  0  0  0  0  0  0
    7.6909   -3.3676   22.4335 C   0  0  0  0  0  0  0  0  0  0  0  0
    7.3654   -1.8832   22.7166 C   0  0  2  0  0  0  0  0  0  0  0  0
    6.2895   -1.4421   21.6904 C   0  0  0  0  0  0  0  0  0  0  0  0
    5.1626   -1.8789   21.5953 O   0  0  0  0  0  0  0  0  0  0  0  0
    6.8381   -0.5040   20.8379 N   0  0  0  0  0  0  0  0  0  0  0  0
    6.1115    0.0418   19.7545 C   0  0  0  0  0  0  0  0  0  0  0  0
    6.4776   -0.2336   18.4602 C   0  0  0  0  0  0  0  0  0  0  0  0
    5.8294    0.2230   17.3594 N   0  0  0  0  0  0  0  0  0  0  0  0
    4.7985    1.0111   17.5556 C   0  0  0  0  0  0  0  0  0  0  0  0
    4.3281    1.4008   18.8415 C   0  0  0  0  0  0  0  0  0  0  0  0
    3.2178    2.2732   18.9924 C   0  0  0  0  0  0  0  0  0  0  0  0
    2.8023    2.6559   20.2380 C   0  0  0  0  0  0  0  0  0  0  0  0
    3.4733    2.1837   21.3875 C   0  0  0  0  0  0  0  0  0  0  0  0
    4.5456    1.3361   21.2681 C   0  0  0  0  0  0  0  0  0  0  0  0
    4.9961    0.9127   19.9847 C   0  0  0  0  0  0  0  0  0  0  0  0
    5.0564    0.9786   22.1565 H   0  0  0  0  0  0  0  0  0  0  0  0
    3.1378    2.4988   22.3713 H   0  0  0  0  0  0  0  0  0  0  0  0
    1.9601    3.3326   20.3509 H   0  0  0  0  0  0  0  0  0  0  0  0
    2.7234    2.6407   18.0971 H   0  0  0  0  0  0  0  0  0  0  0  0
    4.2785    1.3845   16.6728 H   0  0  0  0  0  0  0  0  0  0  0  0
    7.3261   -0.8881   18.2645 H   0  0  0  0  0  0  0  0  0  0  0  0
    8.2837   -0.4174   20.9447 C   0  0  0  0  0  0  0  0  0  0  0  0
    8.5462   -0.9367   22.3648 C   0  0  2  0  0  0  0  0  0  0  0  0
    9.9099   -1.5573   22.5012 N   0  0  0  0  0  4  0  0  0  0  0  0
   10.0060   -2.3582   21.8527 H   0  0  0  0  0  0  0  0  0  0  0  0
   10.6411   -0.8601   22.2710 H   0  0  0  0  0  0  0  0  0  0  0  0
   10.0634   -1.8831   23.4701 H   0  0  0  0  0  0  0  0  0  0  0  0
    8.5231   -0.0925   23.0445 H   0  0  0  0  0  0  0  0  0  0  0  0
    8.7896   -1.0463   20.1963 H   0  0  0  0  0  0  0  0  0  0  0  0
    8.6085    0.6181   20.8046 H   0  0  0  0  0  0  0  0  0  0  0  0
    6.8762   -1.7657   24.1515 C   0  0  0  0  0  0  0  0  0  0  0  0
    6.8498   -0.5250   24.8045 C   0  0  0  0  0  0  0  0  0  0  0  0
    6.4144   -0.4407   26.1147 C   0  0  0  0  0  0  0  0  0  0  0  0
    6.3803    1.1145   26.9000 Cl  0  0  0  0  0  0  0  0  0  0  0  0
    5.9936   -1.5633   26.8279 C   0  0  0  0  0  0  0  0  0  0  0  0
    5.9738   -2.7808   26.1774 C   0  0  0  0  0  0  0  0  0  0  0  0
    6.3747   -2.8771   24.8460 C   0  0  0  0  0  0  0  0  0  0  0  0
    6.1577   -4.1741   24.1443 C   0  0  0  0  0  0  0  0  0  0  0  0
    5.5920   -5.1352   24.6699 O   0  0  0  0  0  0  0  0  0  0  0  0
    5.6294   -3.6814   26.6727 H   0  0  0  0  0  0  0  0  0  0  0  0
    5.6635   -1.4620   27.8568 H   0  0  0  0  0  0  0  0  0  0  0  0
    7.1397    0.3907   24.3007 H   0  0  0  0  0  0  0  0  0  0  0  0
    8.6057   -3.6709   22.9630 H   0  0  0  0  0  0  0  0  0  0  0  0
    7.8302   -3.5202   21.3639 H   0  0  0  0  0  0  0  0  0  0  0  0
    5.9403   -4.7531   20.9503 H   0  0  0  0  0  0  0  0  0  0  0  0
    5.0142   -5.4233   22.3168 H   0  0  0  0  0  0  0  0  0  0  0  0
    6.3208   -6.8130   23.8000 H   0  0  0  0  0  0  0  0  0  0  0  0
    7.2356   -9.0090   23.9433 H   0  0  0  0  0  0  0  0  0  0  0  0
    8.6802   -8.0332   23.5906 H   0  0  0  0  0  0  0  0  0  0  0  0
    7.8304   -8.8673   22.2733 H   0  0  0  0  0  0  0  0  0  0  0  0
  1  2  1  0
  2  3  1  0
  3  4  2  0
  3  5  1  0
  5  6  1  0
  6  7  1  0
  8  7  1  6
  8  9  1  0
  9 10  2  0
  9 11  1  0
 11 12  1  0
 12 13  2  0
 13 14  1  0
 14 15  2  0
 15 16  1  0
 16 17  2  0
 17 18  1  0
 18 19  2  0
 19 20  1  0
 20 21  2  0
 20 22  1  0
 19 23  1  0
 18 24  1  0
 17 25  1  0
 15 26  1  0
 13 27  1  0
 11 28  1  0
 28 29  1  0
 29 30  1  0
 30 31  1  0
 30 32  1  0
 30 33  1  0
 29 34  1  1
 28 35  1  0
 28 36  1  0
  8 37  1  0
 37 38  2  0
 38 39  1  0
 39 40  1  0
 39 41  2  0
 41 42  1  0
 42 43  2  0
 43 44  1  0
 44 45  2  0
 42 46  1  0
 41 47  1  0
 38 48  1  0
  7 49  1  0
  7 50  1  0
  5 51  1  0
  5 52  1  0
  2 53  1  0
  1 54  1  0
  1 55  1  0
  1 56  1  0
 44  6  1  0
 29  8  1  0
 43 37  1  0
 21 12  1  0
 21 16  1  0
M  CHG  1  30   1
M  END
>  <cnnaffinities>  (2) 
[6.43154]

>  <score>  (2) 
6.43154

>  <index>  (2) 
1

>  <Smiles>  (2) 
C(N(C(=O)C(N1C([C@@]2(C(=O)N(c3c(nc(c4c(c(c(c(c34)[H])[H])[H])[H])[H])[H])C([C@@]2([N+]([H])([H])[H])[H])([H])[H])c2c(c(Cl)c(c(c2C1=O)[H])[H])[H])([H])[H])([H])[H])[H])([H])([H])[H]

>  <h>  (2) 
<NA>

>  <Training>  (2) 
True

>  <Success>  (2) 
True

>  <enamine_searched>  (2) 
False

>  <enamine_id>  (2) 
nan

$$$$
