tmp_first_model_2_1.pdb
 OpenBabel06252514443D

 56 60  0  0  1  0  0  0  0  0999 V2000
    5.6940    4.5450   21.0420 C   0  0  0  0  0  0  0  0  0  0  0  0
    6.7800    4.0770   21.8800 N   0  0  0  0  0  0  0  0  0  0  0  0
    6.7640    4.2680   23.2170 C   0  0  0  0  0  0  0  0  0  0  0  0
    5.8830    4.8700   23.8160 O   0  0  0  0  0  0  0  0  0  0  0  0
    7.9550    3.6870   23.9780 C   0  0  0  0  0  0  0  0  0  0  0  0
    8.5210    2.4760   23.4090 N   0  0  0  0  0  0  0  0  0  0  0  0
    7.7780    1.2330   23.5750 C   0  0  0  0  0  0  0  0  0  0  0  0
    8.0720    0.2720   22.3950 C   0  0  2  0  0  0  0  0  0  0  0  0
    7.4270    0.8690   21.1330 C   0  0  0  0  0  0  0  0  0  0  0  0
    7.8940    1.7400   20.4220 O   0  0  0  0  0  0  0  0  0  0  0  0
    6.1840    0.3040   20.9640 N   0  0  0  0  0  0  0  0  0  0  0  0
    5.3500    0.7350   19.9120 C   0  0  0  0  0  0  0  0  0  0  0  0
    5.8040    0.6550   18.6160 C   0  0  0  0  0  0  0  0  0  0  0  0
    5.1340    1.1450   17.5560 N   0  0  0  0  0  0  0  0  0  0  0  0
    3.9890    1.7430   17.7900 C   0  0  0  0  0  0  0  0  0  0  0  0
    3.3760    1.8400   19.0680 C   0  0  0  0  0  0  0  0  0  0  0  0
    2.1140    2.4580   19.2600 C   0  0  0  0  0  0  0  0  0  0  0  0
    1.5710    2.5710   20.5140 C   0  0  0  0  0  0  0  0  0  0  0  0
    2.2810    2.0960   21.6340 C   0  0  0  0  0  0  0  0  0  0  0  0
    3.5140    1.5060   21.4760 C   0  0  0  0  0  0  0  0  0  0  0  0
    4.0780    1.3270   20.1840 C   0  0  0  0  0  0  0  0  0  0  0  0
    4.0770    1.2040   22.3520 H   0  0  0  0  0  0  0  0  0  0  0  0
    1.8650    2.2100   22.6300 H   0  0  0  0  0  0  0  0  0  0  0  0
    0.6020    3.0420   20.6520 H   0  0  0  0  0  0  0  0  0  0  0  0
    1.6010    2.8530   18.3890 H   0  0  0  0  0  0  0  0  0  0  0  0
    3.4940    2.1970   16.9370 H   0  0  0  0  0  0  0  0  0  0  0  0
    6.7640    0.1870   18.4040 H   0  0  0  0  0  0  0  0  0  0  0  0
    5.8810   -0.7380   21.9360 C   0  0  0  0  0  0  0  0  0  0  0  0
    7.2810   -1.0590   22.4670 C   0  0  2  0  0  0  0  0  0  0  0  0
    7.3370   -1.7290   23.8030 N   0  3  0  0  0  0  0  0  0  0  0  0
    6.9810   -2.6990   23.7460 H   0  0  0  0  0  0  0  0  0  0  0  0
    6.7840   -1.1890   24.4920 H   0  0  0  0  0  0  0  0  0  0  0  0
    8.3280   -1.7470   24.1040 H   0  0  0  0  0  0  0  0  0  0  0  0
    7.7330   -1.7380   21.7540 H   0  0  0  0  0  0  0  0  0  0  0  0
    5.2340   -0.3810   22.7480 H   0  0  0  0  0  0  0  0  0  0  0  0
    5.3900   -1.5810   21.4410 H   0  0  0  0  0  0  0  0  0  0  0  0
    9.5680    0.1130   22.2650 C   0  0  0  0  0  0  0  0  0  0  0  0
   10.1350   -1.0300   21.6850 C   0  0  0  0  0  0  0  0  0  0  0  0
   11.5040   -1.1370   21.5610 C   0  0  0  0  0  0  0  0  0  0  0  0
   12.1380   -2.5340   20.7490 Cl  0  0  0  0  0  0  0  0  0  0  0  0
   12.3610   -0.1290   21.9980 C   0  0  0  0  0  0  0  0  0  0  0  0
   11.8080    1.0160   22.5350 C   0  0  0  0  0  0  0  0  0  0  0  0
   10.4240    1.1480   22.6630 C   0  0  0  0  0  0  0  0  0  0  0  0
    9.8850    2.4370   23.2130 C   0  0  0  0  0  0  0  0  0  0  0  0
   10.6130    3.3910   23.4480 O   0  0  0  0  0  0  0  0  0  0  0  0
   12.4420    1.8370   22.8480 H   0  0  0  0  0  0  0  0  0  0  0  0
   13.4330   -0.2220   21.8720 H   0  0  0  0  0  0  0  0  0  0  0  0
    9.5360   -1.8390   21.2870 H   0  0  0  0  0  0  0  0  0  0  0  0
    6.7150    1.4800   23.6030 H   0  0  0  0  0  0  0  0  0  0  0  0
    8.0430    0.7600   24.5320 H   0  0  0  0  0  0  0  0  0  0  0  0
    7.6170    3.5520   25.0090 H   0  0  0  0  0  0  0  0  0  0  0  0
    8.7690    4.4180   23.9880 H   0  0  0  0  0  0  0  0  0  0  0  0
    7.4990    3.4950   21.4610 H   0  0  0  0  0  0  0  0  0  0  0  0
    5.2740    3.7080   20.4630 H   0  0  0  0  0  0  0  0  0  0  0  0
    6.0280    5.3380   20.3630 H   0  0  0  0  0  0  0  0  0  0  0  0
    4.9160    4.9490   21.6950 H   0  0  0  0  0  0  0  0  0  0  0  0
  1  2  1  0  0  0  0
  1 54  1  0  0  0  0
  1 55  1  0  0  0  0
  1 56  1  0  0  0  0
  2  3  1  0  0  0  0
  2 53  1  0  0  0  0
  3  4  2  0  0  0  0
  3  5  1  0  0  0  0
  5  6  1  0  0  0  0
  5 51  1  0  0  0  0
  5 52  1  0  0  0  0
  6  7  1  0  0  0  0
  6 44  1  0  0  0  0
  7  8  1  0  0  0  0
  7 49  1  0  0  0  0
  7 50  1  0  0  0  0
  8  9  1  6  0  0  0
  8 29  1  0  0  0  0
  8 37  1  0  0  0  0
  9 10  2  0  0  0  0
  9 11  1  0  0  0  0
 11 12  1  0  0  0  0
 11 28  1  0  0  0  0
 12 13  2  0  0  0  0
 12 21  1  0  0  0  0
 13 14  1  0  0  0  0
 13 27  1  0  0  0  0
 14 15  2  0  0  0  0
 15 16  1  0  0  0  0
 15 26  1  0  0  0  0
 16 17  2  0  0  0  0
 16 21  1  0  0  0  0
 17 18  1  0  0  0  0
 17 25  1  0  0  0  0
 18 19  2  0  0  0  0
 18 24  1  0  0  0  0
 19 20  1  0  0  0  0
 19 23  1  0  0  0  0
 20 21  2  0  0  0  0
 20 22  1  0  0  0  0
 28 29  1  0  0  0  0
 28 35  1  0  0  0  0
 28 36  1  0  0  0  0
 29 30  1  0  0  0  0
 29 34  1  6  0  0  0
 30 31  1  0  0  0  0
 30 32  1  0  0  0  0
 30 33  1  0  0  0  0
 37 38  2  0  0  0  0
 37 43  1  0  0  0  0
 38 39  1  0  0  0  0
 38 48  1  0  0  0  0
 39 40  1  0  0  0  0
 39 41  2  0  0  0  0
 41 42  1  0  0  0  0
 41 47  1  0  0  0  0
 42 43  2  0  0  0  0
 42 46  1  0  0  0  0
 43 44  1  0  0  0  0
 44 45  2  0  0  0  0
M  CHG  1  30   1
M  END
>  <MODEL>
       1

$$$$
