tmp_first_model_1_0.pdb
 OpenBabel06252514383D

 51 54  0  0  0  0  0  0  0  0999 V2000
   13.1190   -2.1000   24.1000 C   0  0  0  0  0  0  0  0  0  0  0  0
   12.1330   -1.1060   23.8920 O   0  0  0  0  0  0  0  0  0  0  0  0
   10.9270   -1.5440   23.4070 C   0  0  0  0  0  0  0  0  0  0  0  0
   10.8210   -2.3760   22.2960 C   0  0  0  0  0  0  0  0  0  0  0  0
    9.5650   -2.7440   21.8300 C   0  0  0  0  0  0  0  0  0  0  0  0
    8.4130   -2.2690   22.4440 C   0  0  0  0  0  0  0  0  0  0  0  0
    7.1320   -2.6690   21.9650 N   0  0  0  0  0  0  0  0  0  0  0  0
    6.6450   -3.9790   22.3880 C   0  0  0  0  0  0  0  0  0  0  0  0
    6.0660   -3.9830   23.7910 C   0  0  0  0  0  0  0  0  0  0  0  0
    4.6940   -3.8470   23.9990 C   0  0  0  0  0  0  0  0  0  0  0  0
    4.1710   -3.8470   25.2890 C   0  0  0  0  0  0  0  0  0  0  0  0
    5.0080   -3.9700   26.3910 C   0  0  0  0  0  0  0  0  0  0  0  0
    6.3760   -4.0860   26.1790 C   0  0  0  0  0  0  0  0  0  0  0  0
    7.4370   -4.2300   27.5510 Cl  0  0  0  0  0  0  0  0  0  0  0  0
    6.9120   -4.0940   24.8980 C   0  0  0  0  0  0  0  0  0  0  0  0
    7.9910   -4.1580   24.7690 H   0  0  0  0  0  0  0  0  0  0  0  0
    4.6150   -3.9650   27.4040 H   0  0  0  0  0  0  0  0  0  0  0  0
    3.0980   -3.7580   25.4390 H   0  0  0  0  0  0  0  0  0  0  0  0
    4.0300   -3.7390   23.1440 H   0  0  0  0  0  0  0  0  0  0  0  0
    5.8960   -4.2910   21.6570 H   0  0  0  0  0  0  0  0  0  0  0  0
    7.4940   -4.6730   22.3500 H   0  0  0  0  0  0  0  0  0  0  0  0
    6.3080   -1.8600   21.2110 C   0  0  0  0  0  0  0  0  0  0  0  0
    5.1650   -2.1940   20.9440 O   0  0  0  0  0  0  0  0  0  0  0  0
    6.9140   -0.5400   20.6990 C   0  0  0  0  0  0  0  0  0  0  0  0
    6.1110    0.0670   19.5820 C   0  0  0  0  0  0  0  0  0  0  0  0
    6.4240   -0.2090   18.2780 C   0  0  0  0  0  0  0  0  0  0  0  0
    5.7620    0.2630   17.1870 N   0  0  0  0  0  0  0  0  0  0  0  0
    4.7460    1.0610   17.4150 C   0  0  0  0  0  0  0  0  0  0  0  0
    4.2950    1.4260   18.7120 C   0  0  0  0  0  0  0  0  0  0  0  0
    3.1890    2.2920   18.9060 C   0  0  0  0  0  0  0  0  0  0  0  0
    2.7630    2.6010   20.1690 C   0  0  0  0  0  0  0  0  0  0  0  0
    3.4200    2.0520   21.2930 C   0  0  0  0  0  0  0  0  0  0  0  0
    4.4960    1.2130   21.1320 C   0  0  0  0  0  0  0  0  0  0  0  0
    4.9760    0.8950   19.8330 C   0  0  0  0  0  0  0  0  0  0  0  0
    4.9800    0.7830   22.0030 H   0  0  0  0  0  0  0  0  0  0  0  0
    3.0670    2.2970   22.2900 H   0  0  0  0  0  0  0  0  0  0  0  0
    1.9180    3.2690   20.3150 H   0  0  0  0  0  0  0  0  0  0  0  0
    2.6940    2.7060   18.0310 H   0  0  0  0  0  0  0  0  0  0  0  0
    4.2150    1.4530   16.5460 H   0  0  0  0  0  0  0  0  0  0  0  0
    7.2700   -0.8570   18.0480 H   0  0  0  0  0  0  0  0  0  0  0  0
    7.9430   -0.7370   20.3710 H   0  0  0  0  0  0  0  0  0  0  0  0
    7.0040    0.1530   21.5480 H   0  0  0  0  0  0  0  0  0  0  0  0
    8.5240   -1.4210   23.5420 C   0  0  0  0  0  0  0  0  0  0  0  0
    9.7740   -1.0640   24.0260 C   0  0  0  0  0  0  0  0  0  0  0  0
    9.8810   -0.4200   24.8930 H   0  0  0  0  0  0  0  0  0  0  0  0
    7.6210   -1.0730   24.0400 H   0  0  0  0  0  0  0  0  0  0  0  0
    9.4750   -3.4110   20.9790 H   0  0  0  0  0  0  0  0  0  0  0  0
   11.7110   -2.7200   21.7780 H   0  0  0  0  0  0  0  0  0  0  0  0
   14.0650   -1.5840   24.2810 H   0  0  0  0  0  0  0  0  0  0  0  0
   13.2380   -2.7630   23.2340 H   0  0  0  0  0  0  0  0  0  0  0  0
   12.8670   -2.7160   24.9730 H   0  0  0  0  0  0  0  0  0  0  0  0
  1  2  1  0  0  0  0
  1 49  1  0  0  0  0
  1 50  1  0  0  0  0
  1 51  1  0  0  0  0
  2  3  1  0  0  0  0
  3  4  2  0  0  0  0
  3 44  1  0  0  0  0
  4  5  1  0  0  0  0
  4 48  1  0  0  0  0
  5  6  2  0  0  0  0
  5 47  1  0  0  0  0
  6  7  1  0  0  0  0
  6 43  1  0  0  0  0
  7  8  1  0  0  0  0
  7 22  1  0  0  0  0
  8  9  1  0  0  0  0
  8 20  1  0  0  0  0
  8 21  1  0  0  0  0
  9 10  2  0  0  0  0
  9 15  1  0  0  0  0
 10 11  1  0  0  0  0
 10 19  1  0  0  0  0
 11 12  2  0  0  0  0
 11 18  1  0  0  0  0
 12 13  1  0  0  0  0
 12 17  1  0  0  0  0
 13 14  1  0  0  0  0
 13 15  2  0  0  0  0
 15 16  1  0  0  0  0
 22 23  2  0  0  0  0
 22 24  1  0  0  0  0
 24 25  1  0  0  0  0
 24 41  1  0  0  0  0
 24 42  1  0  0  0  0
 25 26  2  0  0  0  0
 25 34  1  0  0  0  0
 26 27  1  0  0  0  0
 26 40  1  0  0  0  0
 27 28  2  0  0  0  0
 28 29  1  0  0  0  0
 28 39  1  0  0  0  0
 29 30  2  0  0  0  0
 29 34  1  0  0  0  0
 30 31  1  0  0  0  0
 30 38  1  0  0  0  0
 31 32  2  0  0  0  0
 31 37  1  0  0  0  0
 32 33  1  0  0  0  0
 32 36  1  0  0  0  0
 33 34  2  0  0  0  0
 33 35  1  0  0  0  0
 43 44  2  0  0  0  0
 43 46  1  0  0  0  0
 44 45  1  0  0  0  0
M  END
>  <MODEL>
       1

$$$$
