tmp_first_model_2_0.pdb
 OpenBabel06252514443D

 51 54  0  0  0  0  0  0  0  0999 V2000
   12.5880   -0.6560   24.8400 C   0  0  0  0  0  0  0  0  0  0  0  0
   12.2940   -1.6520   23.8890 O   0  0  0  0  0  0  0  0  0  0  0  0
   10.9960   -1.7910   23.4980 C   0  0  0  0  0  0  0  0  0  0  0  0
   10.7830   -2.7430   22.5010 C   0  0  0  0  0  0  0  0  0  0  0  0
    9.5080   -3.0210   22.0500 C   0  0  0  0  0  0  0  0  0  0  0  0
    8.4100   -2.3300   22.5600 C   0  0  0  0  0  0  0  0  0  0  0  0
    7.1010   -2.6690   22.0880 N   0  0  0  0  0  0  0  0  0  0  0  0
    6.5560   -3.9820   22.4350 C   0  0  0  0  0  0  0  0  0  0  0  0
    5.9910   -3.9980   23.8400 C   0  0  0  0  0  0  0  0  0  0  0  0
    6.8330   -4.1790   24.9370 C   0  0  0  0  0  0  0  0  0  0  0  0
    6.3240   -4.1130   26.2280 C   0  0  0  0  0  0  0  0  0  0  0  0
    4.9700   -3.8800   26.4410 C   0  0  0  0  0  0  0  0  0  0  0  0
    4.1410   -3.6950   25.3420 C   0  0  0  0  0  0  0  0  0  0  0  0
    2.4420   -3.4060   25.5920 Cl  0  0  0  0  0  0  0  0  0  0  0  0
    4.6370   -3.7380   24.0450 C   0  0  0  0  0  0  0  0  0  0  0  0
    3.9800   -3.5490   23.2010 H   0  0  0  0  0  0  0  0  0  0  0  0
    4.5600   -3.8390   27.4450 H   0  0  0  0  0  0  0  0  0  0  0  0
    6.9910   -4.2290   27.0770 H   0  0  0  0  0  0  0  0  0  0  0  0
    7.8980   -4.3460   24.7820 H   0  0  0  0  0  0  0  0  0  0  0  0
    5.7820   -4.2170   21.6970 H   0  0  0  0  0  0  0  0  0  0  0  0
    7.3630   -4.7170   22.3470 H   0  0  0  0  0  0  0  0  0  0  0  0
    6.2640   -1.7900   21.4360 C   0  0  0  0  0  0  0  0  0  0  0  0
    5.0850   -2.0430   21.2520 O   0  0  0  0  0  0  0  0  0  0  0  0
    6.9140   -0.5170   20.8880 C   0  0  0  0  0  0  0  0  0  0  0  0
    6.1210    0.0750   19.7650 C   0  0  0  0  0  0  0  0  0  0  0  0
    6.4460   -0.2130   18.4670 C   0  0  0  0  0  0  0  0  0  0  0  0
    5.7820    0.2440   17.3770 N   0  0  0  0  0  0  0  0  0  0  0  0
    4.7470    1.0170   17.5920 C   0  0  0  0  0  0  0  0  0  0  0  0
    4.2850    1.3840   18.8820 C   0  0  0  0  0  0  0  0  0  0  0  0
    3.1690    2.2400   19.0600 C   0  0  0  0  0  0  0  0  0  0  0  0
    2.7600    2.5930   20.3150 C   0  0  0  0  0  0  0  0  0  0  0  0
    3.4420    2.0970   21.4490 C   0  0  0  0  0  0  0  0  0  0  0  0
    4.5210    1.2580   21.3040 C   0  0  0  0  0  0  0  0  0  0  0  0
    4.9810    0.8930   20.0100 C   0  0  0  0  0  0  0  0  0  0  0  0
    5.0240    0.8700   22.1850 H   0  0  0  0  0  0  0  0  0  0  0  0
    3.1160    2.3950   22.4410 H   0  0  0  0  0  0  0  0  0  0  0  0
    1.9170    3.2660   20.4470 H   0  0  0  0  0  0  0  0  0  0  0  0
    2.6700    2.6260   18.1740 H   0  0  0  0  0  0  0  0  0  0  0  0
    4.2180    1.3930   16.7170 H   0  0  0  0  0  0  0  0  0  0  0  0
    7.3030   -0.8520   18.2490 H   0  0  0  0  0  0  0  0  0  0  0  0
    7.0380    0.2040   21.7070 H   0  0  0  0  0  0  0  0  0  0  0  0
    7.9290   -0.7750   20.5600 H   0  0  0  0  0  0  0  0  0  0  0  0
    8.6220   -1.3590   23.5360 C   0  0  0  0  0  0  0  0  0  0  0  0
    9.9090   -1.0870   24.0130 C   0  0  0  0  0  0  0  0  0  0  0  0
   10.0410   -0.3330   24.7840 H   0  0  0  0  0  0  0  0  0  0  0  0
    7.7740   -0.8180   23.9560 H   0  0  0  0  0  0  0  0  0  0  0  0
    9.3420   -3.7750   21.2850 H   0  0  0  0  0  0  0  0  0  0  0  0
   11.6520   -3.2520   22.1070 H   0  0  0  0  0  0  0  0  0  0  0  0
   12.2880    0.3350   24.4740 H   0  0  0  0  0  0  0  0  0  0  0  0
   13.6700   -0.6820   24.9830 H   0  0  0  0  0  0  0  0  0  0  0  0
   12.0860   -0.8590   25.7960 H   0  0  0  0  0  0  0  0  0  0  0  0
  1  2  1  0  0  0  0
  1 49  1  0  0  0  0
  1 50  1  0  0  0  0
  1 51  1  0  0  0  0
  2  3  1  0  0  0  0
  3  4  2  0  0  0  0
  3 44  1  0  0  0  0
  4  5  1  0  0  0  0
  4 48  1  0  0  0  0
  5  6  2  0  0  0  0
  5 47  1  0  0  0  0
  6  7  1  0  0  0  0
  6 43  1  0  0  0  0
  7  8  1  0  0  0  0
  7 22  1  0  0  0  0
  8  9  1  0  0  0  0
  8 20  1  0  0  0  0
  8 21  1  0  0  0  0
  9 10  2  0  0  0  0
  9 15  1  0  0  0  0
 10 11  1  0  0  0  0
 10 19  1  0  0  0  0
 11 12  2  0  0  0  0
 11 18  1  0  0  0  0
 12 13  1  0  0  0  0
 12 17  1  0  0  0  0
 13 14  1  0  0  0  0
 13 15  2  0  0  0  0
 15 16  1  0  0  0  0
 22 23  2  0  0  0  0
 22 24  1  0  0  0  0
 24 25  1  0  0  0  0
 24 41  1  0  0  0  0
 24 42  1  0  0  0  0
 25 26  2  0  0  0  0
 25 34  1  0  0  0  0
 26 27  1  0  0  0  0
 26 40  1  0  0  0  0
 27 28  2  0  0  0  0
 28 29  1  0  0  0  0
 28 39  1  0  0  0  0
 29 30  2  0  0  0  0
 29 34  1  0  0  0  0
 30 31  1  0  0  0  0
 30 38  1  0  0  0  0
 31 32  2  0  0  0  0
 31 37  1  0  0  0  0
 32 33  1  0  0  0  0
 32 36  1  0  0  0  0
 33 34  2  0  0  0  0
 33 35  1  0  0  0  0
 43 44  2  0  0  0  0
 43 46  1  0  0  0  0
 44 45  1  0  0  0  0
M  END
>  <MODEL>
       1

$$$$
