tmp_first_model_1_1.pdb
 OpenBabel06252514383D

 56 60  0  0  1  0  0  0  0  0999 V2000
    7.6940   -8.3360   23.2160 C   0  0  0  0  0  0  0  0  0  0  0  0
    6.8190   -7.2040   23.0100 N   0  0  0  0  0  0  0  0  0  0  0  0
    6.8620   -6.4580   21.8790 C   0  0  0  0  0  0  0  0  0  0  0  0
    7.5140   -6.7410   20.8880 O   0  0  0  0  0  0  0  0  0  0  0  0
    6.0180   -5.1860   21.9510 C   0  0  0  0  0  0  0  0  0  0  0  0
    6.5790   -4.2020   22.8530 N   0  0  0  0  0  0  0  0  0  0  0  0
    7.6910   -3.3680   22.4340 C   0  0  0  0  0  0  0  0  0  0  0  0
    7.3650   -1.8830   22.7170 C   0  0  2  0  0  0  0  0  0  0  0  0
    6.2900   -1.4420   21.6900 C   0  0  0  0  0  0  0  0  0  0  0  0
    5.1630   -1.8790   21.5950 O   0  0  0  0  0  0  0  0  0  0  0  0
    6.8380   -0.5040   20.8380 N   0  0  0  0  0  0  0  0  0  0  0  0
    6.1120    0.0420   19.7550 C   0  0  0  0  0  0  0  0  0  0  0  0
    6.4780   -0.2340   18.4600 C   0  0  0  0  0  0  0  0  0  0  0  0
    5.8290    0.2230   17.3590 N   0  0  0  0  0  0  0  0  0  0  0  0
    4.7980    1.0110   17.5560 C   0  0  0  0  0  0  0  0  0  0  0  0
    4.3280    1.4010   18.8420 C   0  0  0  0  0  0  0  0  0  0  0  0
    3.2180    2.2730   18.9920 C   0  0  0  0  0  0  0  0  0  0  0  0
    2.8020    2.6560   20.2380 C   0  0  0  0  0  0  0  0  0  0  0  0
    3.4730    2.1840   21.3870 C   0  0  0  0  0  0  0  0  0  0  0  0
    4.5460    1.3360   21.2680 C   0  0  0  0  0  0  0  0  0  0  0  0
    4.9960    0.9130   19.9850 C   0  0  0  0  0  0  0  0  0  0  0  0
    5.0560    0.9790   22.1560 H   0  0  0  0  0  0  0  0  0  0  0  0
    3.1380    2.4990   22.3710 H   0  0  0  0  0  0  0  0  0  0  0  0
    1.9600    3.3330   20.3510 H   0  0  0  0  0  0  0  0  0  0  0  0
    2.7230    2.6410   18.0970 H   0  0  0  0  0  0  0  0  0  0  0  0
    4.2780    1.3840   16.6730 H   0  0  0  0  0  0  0  0  0  0  0  0
    7.3260   -0.8880   18.2650 H   0  0  0  0  0  0  0  0  0  0  0  0
    8.2840   -0.4170   20.9450 C   0  0  0  0  0  0  0  0  0  0  0  0
    8.5460   -0.9370   22.3650 C   0  0  2  0  0  0  0  0  0  0  0  0
    9.9100   -1.5570   22.5010 N   0  3  0  0  0  0  0  0  0  0  0  0
   10.0060   -2.3580   21.8530 H   0  0  0  0  0  0  0  0  0  0  0  0
   10.6410   -0.8600   22.2710 H   0  0  0  0  0  0  0  0  0  0  0  0
   10.0630   -1.8830   23.4700 H   0  0  0  0  0  0  0  0  0  0  0  0
    8.5230   -0.0920   23.0450 H   0  0  0  0  0  0  0  0  0  0  0  0
    8.7900   -1.0460   20.1960 H   0  0  0  0  0  0  0  0  0  0  0  0
    8.6090    0.6180   20.8050 H   0  0  0  0  0  0  0  0  0  0  0  0
    6.8760   -1.7660   24.1520 C   0  0  0  0  0  0  0  0  0  0  0  0
    6.8500   -0.5250   24.8050 C   0  0  0  0  0  0  0  0  0  0  0  0
    6.4140   -0.4410   26.1150 C   0  0  0  0  0  0  0  0  0  0  0  0
    6.3800    1.1140   26.9000 Cl  0  0  0  0  0  0  0  0  0  0  0  0
    5.9940   -1.5630   26.8280 C   0  0  0  0  0  0  0  0  0  0  0  0
    5.9740   -2.7810   26.1770 C   0  0  0  0  0  0  0  0  0  0  0  0
    6.3750   -2.8770   24.8460 C   0  0  0  0  0  0  0  0  0  0  0  0
    6.1580   -4.1740   24.1440 C   0  0  0  0  0  0  0  0  0  0  0  0
    5.5920   -5.1350   24.6700 O   0  0  0  0  0  0  0  0  0  0  0  0
    5.6290   -3.6810   26.6730 H   0  0  0  0  0  0  0  0  0  0  0  0
    5.6640   -1.4620   27.8570 H   0  0  0  0  0  0  0  0  0  0  0  0
    7.1400    0.3910   24.3010 H   0  0  0  0  0  0  0  0  0  0  0  0
    8.6060   -3.6710   22.9630 H   0  0  0  0  0  0  0  0  0  0  0  0
    7.8300   -3.5200   21.3640 H   0  0  0  0  0  0  0  0  0  0  0  0
    5.9400   -4.7530   20.9500 H   0  0  0  0  0  0  0  0  0  0  0  0
    5.0140   -5.4230   22.3170 H   0  0  0  0  0  0  0  0  0  0  0  0
    6.3210   -6.8130   23.8000 H   0  0  0  0  0  0  0  0  0  0  0  0
    7.2360   -9.0090   23.9430 H   0  0  0  0  0  0  0  0  0  0  0  0
    8.6800   -8.0330   23.5910 H   0  0  0  0  0  0  0  0  0  0  0  0
    7.8300   -8.8670   22.2730 H   0  0  0  0  0  0  0  0  0  0  0  0
  1  2  1  0  0  0  0
  1 54  1  0  0  0  0
  1 55  1  0  0  0  0
  1 56  1  0  0  0  0
  2  3  1  0  0  0  0
  2 53  1  0  0  0  0
  3  4  2  0  0  0  0
  3  5  1  0  0  0  0
  5  6  1  0  0  0  0
  5 51  1  0  0  0  0
  5 52  1  0  0  0  0
  6  7  1  0  0  0  0
  6 44  1  0  0  0  0
  7  8  1  0  0  0  0
  7 49  1  0  0  0  0
  7 50  1  0  0  0  0
  8  9  1  6  0  0  0
  8 29  1  0  0  0  0
  8 37  1  0  0  0  0
  9 10  2  0  0  0  0
  9 11  1  0  0  0  0
 11 12  1  0  0  0  0
 11 28  1  0  0  0  0
 12 13  2  0  0  0  0
 12 21  1  0  0  0  0
 13 14  1  0  0  0  0
 13 27  1  0  0  0  0
 14 15  2  0  0  0  0
 15 16  1  0  0  0  0
 15 26  1  0  0  0  0
 16 17  2  0  0  0  0
 16 21  1  0  0  0  0
 17 18  1  0  0  0  0
 17 25  1  0  0  0  0
 18 19  2  0  0  0  0
 18 24  1  0  0  0  0
 19 20  1  0  0  0  0
 19 23  1  0  0  0  0
 20 21  2  0  0  0  0
 20 22  1  0  0  0  0
 28 29  1  0  0  0  0
 28 35  1  0  0  0  0
 28 36  1  0  0  0  0
 29 30  1  0  0  0  0
 29 34  1  1  0  0  0
 30 31  1  0  0  0  0
 30 32  1  0  0  0  0
 30 33  1  0  0  0  0
 37 38  2  0  0  0  0
 37 43  1  0  0  0  0
 38 39  1  0  0  0  0
 38 48  1  0  0  0  0
 39 40  1  0  0  0  0
 39 41  2  0  0  0  0
 41 42  1  0  0  0  0
 41 47  1  0  0  0  0
 42 43  2  0  0  0  0
 42 46  1  0  0  0  0
 43 44  1  0  0  0  0
 44 45  2  0  0  0  0
M  CHG  1  30   1
M  END
>  <MODEL>
       1

$$$$
